Version 4
SHEET 1 880 680
WIRE 384 -80 288 -80
WIRE 576 -80 464 -80
WIRE -736 16 -736 -16
WIRE -736 16 -768 16
WIRE -736 32 -736 16
WIRE 288 112 288 -80
WIRE 368 112 288 112
WIRE -240 128 -272 128
WIRE -64 128 -160 128
WIRE 32 128 -64 128
WIRE 576 128 576 -80
WIRE 576 128 432 128
WIRE 656 128 576 128
WIRE 368 144 96 144
WIRE -64 368 -64 128
WIRE 208 368 -64 368
WIRE 576 368 576 128
WIRE 576 368 288 368
WIRE 0 0 0 0
FLAG -272 128 0
FLAG 656 128 Vout
FLAG -736 -96 Vcc
FLAG -736 112 Vss
FLAG -528 256 Vin
FLAG -528 336 0
FLAG -768 16 0
FLAG 32 160 Vin
FLAG 64 112 Vcc
FLAG 400 96 Vcc
FLAG 64 176 Vss
FLAG 400 160 Vss
FLAG 288 -160 0
SYMBOL ZZZ\\OpAmp\\LM324_AB 64 80 R0
SYMATTR InstName U1
SYMBOL res 304 352 R90
WINDOW 0 0 56 VBottom 2
WINDOW 3 32 56 VTop 2
SYMATTR InstName RF
SYMATTR Value 90k
SYMBOL res -144 112 R90
WINDOW 0 0 56 VBottom 2
WINDOW 3 32 56 VTop 2
SYMATTR InstName RI
SYMATTR Value 10k
SYMBOL voltage -736 -112 R0
WINDOW 123 0 0 Left 0
WINDOW 39 0 0 Left 0
SYMATTR InstName V1
SYMATTR Value 10
SYMBOL voltage -736 16 R0
WINDOW 123 0 0 Left 0
WINDOW 39 0 0 Left 0
SYMATTR InstName V2
SYMATTR Value 10
SYMBOL voltage -528 240 R0
WINDOW 123 24 124 Left 2
WINDOW 39 0 0 Left 0
SYMATTR Value2 AC 1
SYMATTR InstName V3
SYMATTR Value SINE(0 10m 1k)
SYMBOL res 480 -96 R90
WINDOW 0 0 56 VBottom 2
WINDOW 3 32 56 VTop 2
SYMATTR InstName R2
SYMATTR Value 22k
SYMBOL res 272 -176 R0
SYMATTR InstName R1
SYMATTR Value 1k
SYMBOL OpAmps\\opamp2 400 64 R0
SYMATTR InstName U2
SYMATTR Value LM6181/NS
TEXT 144 -200 Left 2 ;AMPLIFICADOR
TEXT -800 -192 Left 2 ;FUENTE DE ALIMENTACIÓN
TEXT -592 408 Left 2 ;SEÑAL DE ENTRADA
TEXT -816 536 Left 2 !.ac dec 100 1 1G
TEXT 584 496 Left 2 !.include LM6181.mod
RECTANGLE Normal 864 528 -816 -224 2
RECTANGLE Normal -320 528 -816 -224 2
