Version 4
SHEET 1 1368 680
WIRE 48 -496 48 -544
WIRE 144 -496 48 -496
WIRE 304 -496 224 -496
WIRE -64 -432 -64 -464
WIRE -368 -384 -368 -432
WIRE -368 -384 -416 -384
WIRE -368 -368 -368 -384
WIRE 48 -352 48 -496
WIRE 96 -352 48 -352
WIRE 304 -336 304 -496
WIRE 304 -336 160 -336
WIRE 336 -336 304 -336
WIRE -64 -320 -64 -352
WIRE 48 -320 -64 -320
WIRE 96 -320 48 -320
WIRE -64 -288 -64 -320
WIRE 48 -176 48 -320
WIRE 144 -176 48 -176
WIRE 304 -176 304 -336
WIRE 304 -176 224 -176
FLAG 336 -336 Vout
FLAG -368 -512 Vcc
FLAG 128 -368 Vcc
FLAG -64 -208 0
FLAG -64 -464 Vcc
FLAG 48 -608 0
FLAG -368 -288 Vss
FLAG -416 -384 0
FLAG 128 -304 Vss
SYMBOL voltage -368 -528 R0
WINDOW 123 0 0 Left 0
WINDOW 39 0 0 Left 0
SYMATTR InstName V1
SYMATTR Value 10
SYMBOL res 240 -192 R90
WINDOW 0 0 56 VBottom 2
WINDOW 3 32 56 VTop 2
SYMATTR InstName R1
SYMATTR Value 10k
SYMBOL res 240 -512 R90
WINDOW 0 0 56 VBottom 2
WINDOW 3 32 56 VTop 2
SYMATTR InstName R2
SYMATTR Value 3.3k
SYMBOL res -80 -304 R0
SYMATTR InstName R4
SYMATTR Value 10k
SYMBOL res -80 -448 R0
SYMATTR InstName R3
SYMATTR Value 10k
SYMBOL cap 32 -608 R0
SYMATTR InstName C1
SYMATTR Value 100p
SYMBOL voltage -368 -384 R0
WINDOW 123 0 0 Left 0
WINDOW 39 0 0 Left 0
SYMATTR InstName V2
SYMATTR Value 10
SYMBOL OpAmps\\AD8066 128 -400 R0
SYMATTR InstName U1
TEXT -416 -128 Left 2 !.tran 1m
RECTANGLE Normal 464 -64 -560 -672 2
RECTANGLE Normal -128 -64 -560 -672 2
