Version 4
SHEET 1 880 680
WIRE 384 -48 288 -48
WIRE 576 -48 464 -48
WIRE -736 16 -736 -16
WIRE -736 16 -768 16
WIRE -736 32 -736 16
WIRE -240 128 -272 128
WIRE -64 128 -160 128
WIRE 32 128 -64 128
WIRE 240 144 96 144
WIRE 288 144 288 -48
WIRE 368 144 288 144
WIRE 576 160 576 -48
WIRE 576 160 432 160
WIRE 656 160 576 160
WIRE 240 176 240 144
WIRE 368 176 240 176
WIRE -64 368 -64 128
WIRE 208 368 -64 368
WIRE 576 368 576 160
WIRE 576 368 288 368
FLAG -272 128 0
FLAG 656 160 Vout
FLAG -736 -96 Vcc
FLAG -736 112 Vss
FLAG -528 256 Vin
FLAG -528 336 0
FLAG -768 16 0
FLAG 32 160 Vin
FLAG 64 112 Vcc
FLAG 400 128 Vcc
FLAG 64 176 Vss
FLAG 400 192 Vss
FLAG 288 -128 0
SYMBOL res 304 352 R90
WINDOW 0 0 56 VBottom 2
WINDOW 3 32 56 VTop 2
SYMATTR InstName RF
SYMATTR Value 90k
SYMBOL res -144 112 R90
WINDOW 0 0 56 VBottom 2
WINDOW 3 32 56 VTop 2
SYMATTR InstName RI
SYMATTR Value 10k
SYMBOL voltage -736 -112 R0
WINDOW 123 0 0 Left 0
WINDOW 39 0 0 Left 0
SYMATTR InstName V1
SYMATTR Value 10
SYMBOL voltage -736 16 R0
WINDOW 123 0 0 Left 0
WINDOW 39 0 0 Left 0
SYMATTR InstName V2
SYMATTR Value 10
SYMBOL voltage -528 240 R0
WINDOW 123 24 124 Left 2
WINDOW 39 0 0 Left 0
SYMATTR Value2 AC 1
SYMATTR InstName V3
SYMATTR Value SINE(0 10m 1k)
SYMBOL res 480 -64 R90
WINDOW 0 0 56 VBottom 2
WINDOW 3 32 56 VTop 2
SYMATTR InstName R2
SYMATTR Value 22k
SYMBOL res 272 -144 R0
SYMATTR InstName R1
SYMATTR Value 1k
SYMBOL ZZZ\\OpAmp\\LM324 400 160 R0
SYMATTR InstName U2
SYMBOL ZZZ\\OpAmp\\LM324 64 144 R0
SYMATTR InstName U1
TEXT 144 -200 Left 2 ;AMPLIFICADOR
TEXT -800 -192 Left 2 ;FUENTE DE ALIMENTACIÓN
TEXT -592 408 Left 2 ;SEÑAL DE ENTRADA
TEXT -816 536 Left 2 !.ac dec 100 1 1G
RECTANGLE Normal 864 528 -816 -224 2
RECTANGLE Normal -320 528 -816 -224 2
