Version 4
SHEET 1 880 680
WIRE 208 -32 -64 -32
WIRE 576 -32 288 -32
WIRE -736 16 -736 -16
WIRE -736 16 -768 16
WIRE -736 32 -736 16
WIRE -240 128 -272 128
WIRE -64 128 -64 -32
WIRE -64 128 -160 128
WIRE 32 128 -64 128
WIRE 368 144 96 144
WIRE 576 160 576 -32
WIRE 576 160 432 160
WIRE 656 160 576 160
WIRE 368 176 320 176
WIRE 320 304 320 176
WIRE 384 304 320 304
WIRE 576 304 576 160
WIRE 576 304 464 304
FLAG 320 384 0
FLAG -272 128 0
FLAG 656 160 Vout
FLAG -736 -96 Vcc
FLAG -736 112 Vss
FLAG -528 256 Vin
FLAG -528 336 0
FLAG -768 16 0
FLAG 32 160 Vin
FLAG 64 112 Vcc
FLAG 400 128 Vcc
FLAG 64 176 Vss
FLAG 400 192 Vss
SYMBOL ZZZ\\OpAmp\\LM324_AB 64 80 R0
SYMATTR InstName U1
SYMBOL ZZZ\\OpAmp\\LM324_AB 400 96 R0
SYMATTR InstName U2
SYMBOL res 336 400 R180
WINDOW 0 36 76 Left 2
WINDOW 3 36 40 Left 2
SYMATTR InstName R1
SYMATTR Value 1k
SYMBOL res 368 320 R270
WINDOW 0 32 56 VTop 2
WINDOW 3 0 56 VBottom 2
SYMATTR InstName R2
SYMATTR Value 22k
SYMBOL res 304 -48 R90
WINDOW 0 0 56 VBottom 2
WINDOW 3 32 56 VTop 2
SYMATTR InstName RF
SYMATTR Value 90k
SYMBOL res -144 112 R90
WINDOW 0 0 56 VBottom 2
WINDOW 3 32 56 VTop 2
SYMATTR InstName RI
SYMATTR Value 10k
SYMBOL voltage -736 -112 R0
WINDOW 123 0 0 Left 0
WINDOW 39 0 0 Left 0
SYMATTR InstName V1
SYMATTR Value 10
SYMBOL voltage -736 16 R0
WINDOW 123 0 0 Left 0
WINDOW 39 0 0 Left 0
SYMATTR InstName V2
SYMATTR Value 10
SYMBOL voltage -528 240 R0
WINDOW 123 24 124 Left 2
WINDOW 39 0 0 Left 0
SYMATTR Value2 AC 0.5
SYMATTR InstName V3
SYMATTR Value SINE(0 25m 1k)
TEXT 144 -200 Left 2 ;AMPLIFICADOR
TEXT -800 -192 Left 2 ;FUENTE DE ALIMENTACIÓN
TEXT -592 408 Left 2 ;SEÑAL DE ENTRADA
TEXT -816 536 Left 2 !.ac dec 100 1 10G
RECTANGLE Normal 864 528 -816 -224 2
RECTANGLE Normal -320 528 -816 -224 2
