Version 4
SHEET 1 1220 680
WIRE 656 -80 560 -80
WIRE 848 -80 736 -80
WIRE -736 16 -736 -16
WIRE -736 16 -768 16
WIRE -736 32 -736 16
WIRE 288 32 256 32
WIRE 400 32 368 32
WIRE 560 112 560 -80
WIRE 640 112 560 112
WIRE -240 128 -272 128
WIRE -64 128 -160 128
WIRE 32 128 -64 128
WIRE 848 128 848 -80
WIRE 848 128 704 128
WIRE 928 128 848 128
WIRE 256 144 256 32
WIRE 256 144 96 144
WIRE 288 144 256 144
WIRE 400 144 400 32
WIRE 400 144 352 144
WIRE 640 144 400 144
WIRE 400 176 400 144
WIRE -64 368 -64 128
WIRE 208 368 -64 368
WIRE 848 368 848 128
WIRE 848 368 288 368
FLAG -272 128 0
FLAG 928 128 Vout
FLAG -736 -96 Vcc
FLAG -736 112 Vss
FLAG -528 256 Vin
FLAG -528 336 0
FLAG -768 16 0
FLAG 32 160 Vin
FLAG 64 112 Vcc
FLAG 672 96 Vcc
FLAG 64 176 Vss
FLAG 672 160 Vss
FLAG 560 -160 0
FLAG 400 256 0
SYMBOL res 304 352 R90
WINDOW 0 0 56 VBottom 2
WINDOW 3 32 56 VTop 2
SYMATTR InstName RF
SYMATTR Value 90k
SYMBOL res -144 112 R90
WINDOW 0 0 56 VBottom 2
WINDOW 3 32 56 VTop 2
SYMATTR InstName RI
SYMATTR Value 10k
SYMBOL voltage -736 -112 R0
WINDOW 123 0 0 Left 0
WINDOW 39 0 0 Left 0
SYMATTR InstName V1
SYMATTR Value 10
SYMBOL voltage -736 16 R0
WINDOW 123 0 0 Left 0
WINDOW 39 0 0 Left 0
SYMATTR InstName V2
SYMATTR Value 10
SYMBOL voltage -528 240 R0
WINDOW 123 24 124 Left 2
WINDOW 39 0 0 Left 0
SYMATTR Value2 AC 1
SYMATTR InstName V3
SYMATTR Value SINE(0 10m 1k)
SYMBOL res 752 -96 R90
WINDOW 0 0 56 VBottom 2
WINDOW 3 32 56 VTop 2
SYMATTR InstName R2
SYMATTR Value 850
SYMBOL res 544 -176 R0
SYMATTR InstName R1
SYMATTR Value 22
SYMBOL OpAmps\\opamp2 672 64 R0
SYMATTR InstName U2
SYMATTR Value LM6181/NS
SYMBOL ZZZ\\OpAmp\\LM324 64 144 R0
SYMATTR InstName U1
SYMBOL res 384 16 R90
WINDOW 0 0 56 VBottom 2
WINDOW 3 32 56 VTop 2
SYMATTR InstName Rx
SYMATTR Value 1k
SYMBOL cap 352 128 R90
WINDOW 0 0 32 VBottom 2
WINDOW 3 32 32 VTop 2
SYMATTR InstName Cx
SYMATTR Value 31p
SYMBOL res 384 160 R0
SYMATTR InstName Ry
SYMATTR Value 1k
TEXT 144 -200 Left 2 ;AMPLIFICADOR
TEXT -800 -192 Left 2 ;FUENTE DE ALIMENTACIÓN
TEXT -592 408 Left 2 ;SEÑAL DE ENTRADA
TEXT -816 536 Left 2 !.ac dec 100 1 1G
TEXT 592 496 Left 2 !.include LM6181.mod
RECTANGLE Normal -320 528 -816 -224 2
RECTANGLE Normal 1184 528 -320 -224 2
